Version 4
SHEET 1 1172 680
WIRE 192 -96 176 -96
WIRE 304 -96 272 -96
WIRE 176 -32 176 -96
WIRE 304 -32 304 -96
WIRE 80 32 32 32
WIRE 464 32 400 32
WIRE 496 32 464 32
WIRE 608 32 496 32
WIRE 736 32 608 32
WIRE 848 32 736 32
WIRE 960 32 848 32
WIRE 1088 32 960 32
WIRE 736 48 736 32
WIRE 848 48 848 32
WIRE 960 48 960 32
WIRE 496 80 496 32
WIRE -128 112 -272 112
WIRE 16 112 -128 112
WIRE 32 112 32 32
WIRE 32 112 16 112
WIRE 80 112 32 112
WIRE 464 112 464 32
WIRE 464 112 400 112
WIRE 608 112 608 32
WIRE -128 128 -128 112
WIRE 736 128 736 112
WIRE 848 128 848 112
WIRE 848 128 736 128
WIRE 960 128 960 112
WIRE 960 128 848 128
WIRE 960 160 960 128
WIRE 1088 176 1088 32
WIRE 16 192 16 112
WIRE 80 192 16 192
WIRE 496 192 496 144
WIRE 496 192 400 192
WIRE 608 192 496 192
WIRE -272 224 -272 112
WIRE 80 272 -128 272
WIRE 528 272 400 272
WIRE 432 304 400 304
WIRE 1088 304 1088 256
WIRE 432 320 432 304
WIRE 528 320 528 272
WIRE -128 352 -128 272
WIRE 80 352 16 352
WIRE 400 352 400 304
WIRE 400 368 400 352
WIRE 16 416 16 352
WIRE 176 480 176 416
WIRE 304 480 304 416
WIRE 304 480 176 480
WIRE 432 480 432 464
WIRE 432 480 304 480
WIRE 528 480 528 400
WIRE 528 480 432 480
WIRE 608 480 608 272
WIRE 608 480 528 480
WIRE 304 512 304 480
FLAG 960 160 0
FLAG 304 512 0
FLAG -128 416 0
FLAG -128 192 0
FLAG 16 416 0
FLAG -272 304 0
FLAG 1088 304 0
SYMBOL PowerProducts\\LT3154 240 192 R0
SYMATTR InstName U1
SYMBOL cap 720 48 R0
SYMATTR InstName C1
SYMATTR Value 0.1µF
SYMBOL cap 832 48 R0
SYMATTR InstName C2
SYMATTR Value 100µF
SYMATTR SpiceLine Rser=0.02 Lser=10nH
SYMBOL cap 944 48 R0
SYMATTR InstName C3
SYMATTR Value 100µF
SYMATTR SpiceLine Rser=0.02 Lser=10nH
SYMBOL res 592 96 R0
SYMATTR InstName R1
SYMATTR Value 232K
SYMBOL res 592 176 R0
SYMATTR InstName R2
SYMATTR Value 100K
SYMBOL cap 480 80 R0
SYMATTR InstName C4
SYMATTR Value 1nF
SYMBOL res 416 304 R0
SYMATTR InstName R3
SYMATTR Value 100K
SYMBOL cap 416 400 R0
SYMATTR InstName C5
SYMATTR Value 1nF
SYMBOL res 512 304 R0
SYMATTR InstName R4
SYMATTR Value 110K
SYMBOL cap -144 352 R0
SYMATTR InstName C6
SYMATTR Value 10nF
SYMBOL cap -144 128 R0
SYMATTR InstName C7
SYMATTR Value 0.1µF
SYMBOL voltage -272 208 R0
WINDOW 123 0 0 Left 0
WINDOW 39 0 0 Left 0
SYMATTR InstName V1
SYMATTR Value 4.2V
SYMBOL ind 176 -80 R270
WINDOW 0 32 56 VTop 2
WINDOW 3 5 56 VBottom 2
SYMATTR InstName L1
SYMATTR Value 1µH
SYMATTR SpiceLine Ipk=1 Rser=.208
SYMBOL res 1072 160 R0
SYMATTR InstName R5
SYMATTR Value 330
TEXT -306 536 Left 2 !.tran 2ms
